21
Optimized geometry
C        2.09576    -0.17020     0.31413
C        0.77258     2.11366    -0.57710
C        2.82557     0.97946     0.02367
C        2.16028     2.12752    -0.42523
C       -3.65599     0.94237    -0.02763
C        0.69400    -0.20930     0.16717
C        0.04549     0.95854    -0.28308
O        0.66008    -2.49048     0.92665
O       -1.93145     1.13807     1.69473
O       -1.31442    -1.55281     0.30435
C        0.05002    -1.49799     0.50276
C       -2.26654     1.04230     0.52066
O       -1.34002     1.01870    -0.53687
H       -1.63538    -2.43956     0.57853
H        2.58772    -1.07056     0.66225
H        0.23389     2.98666    -0.92503
H        3.90284     0.98228     0.14572
H        2.71735     3.03087    -0.65018
H       -3.81278    -0.07276    -0.40766
H       -4.37889     1.15509     0.76055
H       -3.79099     1.63324    -0.86396
